[General]
network = ComputerNet
sim-time-limit = 50s
record-eventlog=true